#
# FAPA
# INPUT DATA FILE
# ZDPLASKIN
#
#
ELEMENTS
E O N Ar H
END

SPECIES
#
E
#
Ar
Ar(4SM) Ar(4SR) Ar(4SPM) Ar(4SPR) Ar(4P)
Ar^+
Ar2(E) Ar2^+
#
O2
O O(E) O^+ O^-
O2(R) O2(V1) O2(E) O2(E1S) O2^+ O2^-
O3 O3^- O3(E)
O4^+
#
H2
H H(E) H^+ H^-
H2(R) H2(V1) H2(E) H2^+
H3^+
#
N2
N N(E) N^+
N2(R) N2(V1) N2(E) N2(AP1S) N2^+
N3^+
N4^+
#
NO NO^+
NO2 NO2^+ NO2^-
NO3 NO3^-
N2O N2O(V1)
#
H2O
OH OH(E) OH^+ OH^-
H2O(V1) H2O^+
H3O^+
HO2
H2O2
#
NH
#
ArH^+
#
N2O5
N2O3
N2O4
#
HNO
HNO2
HNO3
HNO4
#
H2NO2^+
H4NO3^+
H6NO4^+
H7O3^+
H4O2^+
H2O3^+
H5O2^+
H9O4^+
H11O5^+
H13O6^+
H15O7^+
#
END


BOLSIG
#SET DBFILE bolsigdb.dat
set electron-electron collisions 1.0d-20
Ar
Ar(4SM) Ar(4SR) Ar(4SPM) Ar(4SPR) Ar(4P)
#
O2
O O(E) O^-
O2(V1) O2(E) O2(E1S) O2^+ O2^-
O3
#
H2
H H(E) H^+ H^-
H2(E) H2^+
H3^+
#
N2
N N(E) N^+
N2(V1) N2(E) N2(AP1S) N2^+
#
NO
NO2
N2O
#
H2O
OH OH^-
H2O2
#
NH
#
ArH^+
#
END

REACTIONS

E + Ar => Ar(4SM) + E                        ! BOLSIG+ 	Ar -> Ar(4SM)
E + Ar => Ar(4SR) + E                        ! BOLSIG+ 	Ar -> Ar(4SR)
E + Ar => Ar(4SPM) + E                       ! BOLSIG+ 	Ar -> Ar(4SPM)
E + Ar => Ar(4SPR) + E                       ! BOLSIG+ 	Ar -> Ar(4SPR)
E + Ar => Ar(4P) + E                         ! BOLSIG+ 	Ar -> Ar(4P)
E + Ar => Ar(4P) + E                         ! BOLSIG+ 	Ar -> Ar(4P)b
E + Ar => Ar(4P) + E                         ! BOLSIG+ 	Ar -> Ar(4P)c
E + Ar => Ar(4P) + E                         ! BOLSIG+ 	Ar -> Ar(4P)d
E + Ar => Ar^+ + E + E                     ! BOLSIG+ 	Ar -> Ar^+
E + Ar(4SM) => Ar + E                        ! BOLSIG+ 	Ar(4SM) -> Ar
E + Ar(4SM) => Ar(4SR) + E                       ! BOLSIG+ 	Ar(4SM) -> Ar(4SR)
E + Ar(4SM) => Ar(4SPM) + E                      ! BOLSIG+ 	Ar(4SM) -> Ar(4SPM)
E + Ar(4SM) => Ar(4SPR) + E                      ! BOLSIG+ 	Ar(4SM) -> Ar(4SPR)
E + Ar(4SM) => Ar(4P) + E                        ! BOLSIG+ 	Ar(4SM) -> Ar(4P)
E + Ar(4SM) => Ar^+ + E + E                    ! BOLSIG+ 	Ar(4SM) -> Ar^+
E + Ar(4SR) => Ar + E                        ! BOLSIG+ 	Ar(4SR) -> Ar
E + Ar(4SR) => Ar(4SM) + E                       ! BOLSIG+ 	Ar(4SR) -> Ar(4SM)
E + Ar(4SR) => Ar(4SPM) + E                      ! BOLSIG+ 	Ar(4SR) -> Ar(4SPM)
E + Ar(4SR) => Ar(4SPR) + E                      ! BOLSIG+ 	Ar(4SR) -> Ar(4SPR)
E + Ar(4SR) => Ar(4P) + E                        ! BOLSIG+ 	Ar(4SR) -> Ar(4P)
E + Ar(4SR) => Ar^+ + E + E                    ! BOLSIG+ 	Ar(4SR) -> Ar^+
E + Ar(4SPM) => Ar + E                       ! BOLSIG+ 	Ar(4SPM) -> Ar
E + Ar(4SPM) => Ar(4SM) + E                      ! BOLSIG+ 	Ar(4SPM) -> Ar(4SM)
E + Ar(4SPM) => Ar(4SR) + E                      ! BOLSIG+ 	Ar(4SPM) -> Ar(4SR)
E + Ar(4SPM) => Ar(4SPR) + E                     ! BOLSIG+ 	Ar(4SPM) -> Ar(4SPR)
E + Ar(4SPM) => Ar(4P) + E                       ! BOLSIG+ 	Ar(4SPM) -> Ar(4P)
E + Ar(4SPM) => Ar^+ + E + E                   ! BOLSIG+ 	Ar(4SPM) -> Ar^+
E + Ar(4SPR) => Ar + E                       ! BOLSIG+ 	Ar(4SPR) -> Ar
E + Ar(4SPR) => Ar(4SM) + E                      ! BOLSIG+ 	Ar(4SPR) -> Ar(4SM)
E + Ar(4SPR) => Ar(4SR) + E                      ! BOLSIG+ 	Ar(4SPR) -> Ar(4SR)
E + Ar(4SPR) => Ar(4SPM) + E                     ! BOLSIG+ 	Ar(4SPR) -> Ar(4SPM)
E + Ar(4SPR) => Ar(4P) + E                       ! BOLSIG+ 	Ar(4SPR) -> Ar(4P)
E + Ar(4SPR) => Ar^+ + E + E                   ! BOLSIG+ 	Ar(4SPR) -> Ar^+
E + Ar(4P) => Ar + E                         ! BOLSIG+ 	Ar(4P) -> Ar
E + Ar(4P) => Ar(4SM) + E                        ! BOLSIG+ 	Ar(4P) -> Ar(4SM)
E + Ar(4P) => Ar(4SR) + E                        ! BOLSIG+ 	Ar(4P) -> Ar(4SR)
E + Ar(4P) => Ar(4SPM) + E                       ! BOLSIG+ 	Ar(4P) -> Ar(4SPM)
E + Ar(4P) => Ar(4SPR) + E                       ! BOLSIG+ 	Ar(4P) -> Ar(4SPR)
E + Ar(4P) => Ar^+ + E + E                     ! BOLSIG+ 	Ar(4P) -> Ar^+
E + Ar^+ => Ar(4P)                              ! 4.00d-13*(Te/11600)**(-0.50)*exp(-0.0/(Te/11600))
E + E + Ar^+ => Ar(4P) + E                      ! 5.00d-27*(Te/11600)**(-4.50)*exp(-0.0/(Te/11600))
!E + Ar2(E) => Ar2^+ + E + E                     ! 9.00d-08*(Te/11600)**(0.70)*exp(-0.0/(Te/11600))
E + Ar2^+ => Ar(4P) + Ar                      ! 5.38d-08*(Te/11600)**(-0.66)*exp(-0.0/(Te/11600))
E + O => O(E) + E                              ! BOLSIG+ 	O -> O(E)
E + O => O^+ + E + E                         ! BOLSIG+ 	O -> O^+
E + O + O2 => O^- + O2                        ! 1.07d-31*(300/Te)**(2)*exp(-70/Tgas)*exp(1500*(Te-Tgas)/(Te*Tgas))
E + O + N2 => O^- + N2                        ! 1.07d-31*(300/Te)**(2)*exp(-70/Tgas)*exp(1500*(Te-Tgas)/(Te*Tgas))
E + O + Ar => O^- + Ar                    ! 2.5*1.07d-31*(300/Te)**(2)*exp(-70/Tgas)*exp(1500*(Te-Tgas)/(Te*Tgas))
E + O + H2O => O^- + H2O                      ! 5*1.07d-31*(300/Te)**(2)*exp(-70/Tgas)*exp(1500*(Te-Tgas)/(Te*Tgas))
E + O + H2 => O^- + H2                        ! 2.5*1.07d-31*(300/Te)**(2)*exp(-70/Tgas)*exp(1500*(Te-Tgas)/(Te*Tgas))
E + O(E) => O + E                              ! BOLSIG+ 	O(E) -> O
E + O(E) => O^+ + E +E                         ! BOLSIG+ 	O(E) -> O^+ +E
E + E + O^+ => O + E                          ! 9.14d-27*(Te/11600)**(-4.50)*exp(-0.0/(Te/11600))
E + ANY_NEUTRAL + O^+ => O + ANY_NEUTRAL                          ! 2.70d-29*(Te/11600)**(-1.50)*exp(-0.0/(Te/11600))
E + O^- => O + E + E                         ! BOLSIG+ 	O^- -> O
E + O2 => O2(R) + E                            ! BOLSIG+ 	O2 -> O2(R)
E + O2 => O2(V1) + E                            ! BOLSIG+ 	O2 -> O2(V1)
E + O2 => O2(V1) + E                            ! BOLSIG+ 	O2 -> O2(V2)
E + O2 => O2(V1) + E                            ! BOLSIG+ 	O2 -> O2(V3)
E + O2 => O2(V1) + E                            ! BOLSIG+ 	O2 -> O2(V4)
E + O2 => O2(V1) + E                            ! BOLSIG+ 	O2 -> O2(V5)
E + O2 => O2(V1) + E                            ! BOLSIG+ 	O2 -> O2(V6)
E + O2 => O2(E) + E                            ! BOLSIG+ 	O2 -> O2(E)
E + O2 => O2(E1S) + E                          ! BOLSIG+ 	O2 -> O2(E1S)
E + O2 => O2^+ + E + E                       ! BOLSIG+ 	O2 -> O2^+
E + O2 => O + O + E                          ! BOLSIG+ 	O2 -> O + O
E + O2 => O + O + E                          ! BOLSIG+ 	O2 -> O + O b
E + O2 => O^+ + O + E + E                    ! BOLSIG+ 	O2 -> O^+ + O
E + O2 => O^- + O                            ! BOLSIG+ 	O2 -> O^- + O
E + O2 + O2 => O2^- + O2                      ! 1.07d-31*(300/Te)**(2)*exp(-70/Tgas)*exp(1500*(Te-Tgas)/(Te*Tgas))
E + O2 + N2 => O2^- + N2                      ! 1.07d-31*(300/Te)**(2)*exp(-70/Tgas)*exp(1500*(Te-Tgas)/(Te*Tgas))
E + O2 + Ar => O2^- + Ar                  ! 2.5*1.07d-31*(300/Te)**(2)*exp(-70/Tgas)*exp(1500*(Te-Tgas)/(Te*Tgas))
E + O2 + H2O => O2^- + H2O                    ! 5*1.07d-31*(300/Te)**(2)*exp(-70/Tgas)*exp(1500*(Te-Tgas)/(Te*Tgas))
E + O2 + H2 => O2^- + H2                      ! 2.5*1.07d-31*(300/Te)**(2)*exp(-70/Tgas)*exp(1500*(Te-Tgas)/(Te*Tgas))
E + O2(V1) => O2(R) + E                           ! BOLSIG+ 	O2(V1) -> O2(R)
E + O2(V1) => O2 + E                            ! BOLSIG+ 	O2(V1) -> O2
E + O2(V1) => O2(E) + E                           ! BOLSIG+ 	O2(V1) -> O2(E)
E + O2(V1) => O2(E1S) + E                         ! BOLSIG+ 	O2(V1) -> O2(E1S)
E + O2(V1) => O + O + E                         ! BOLSIG+ 	O2(V1) -> O + O
E + O2(V1) => O + O + E                         ! BOLSIG+ 	O2(V1) -> O + O b
E + O2(V1) => O2^+ + E + E                      ! BOLSIG+ 	O2(V1) -> O2^+
E + O2(V1) => O^+ + O + E + E                   ! BOLSIG+ 	O2(V1) -> O^+ + O
E + O2(E) => O + O + E                         ! BOLSIG+ 	O2(E) -> O + O
E + O2(E) => O + O + E                         ! BOLSIG+ 	O2(E) -> O + O b
E + O2(E) => O^+ + O + E + E                   ! BOLSIG+ 	O2(E) -> O^+ + O
E + O2(E) => O^- + O                           ! BOLSIG+ 	O2(E) -> O^- + O
E + O2(E) => O2 + E                            ! BOLSIG+ 	O2(E) -> O2
E + O2(E) => O2(E1S) + E                         ! BOLSIG+ 	O2(E) -> O2(E1S)
E + O2(E) => O2^+ + E + E                      ! BOLSIG+ 	O2(E) -> O2^+
E + O2(E) + O2 => O2^- + O2                     ! 1.07d-31*(300/Te)**(2)*exp(-70/Tgas)*exp(1500*(Te-Tgas)/(Te*Tgas))
E + O2(E) + N2 => O2^- + N2                     ! 1.07d-31*(300/Te)**(2)*exp(-70/Tgas)*exp(1500*(Te-Tgas)/(Te*Tgas))
E + O2(E) + Ar => O2^- + Ar                 ! 2.5*1.07d-31*(300/Te)**(2)*exp(-70/Tgas)*exp(1500*(Te-Tgas)/(Te*Tgas))
E + O2(E) + H2O => O2^- + H2O                   ! 5*1.07d-31*(300/Te)**(2)*exp(-70/Tgas)*exp(1500*(Te-Tgas)/(Te*Tgas))
E + O2(E) + H2 => O2^- + H2                     ! 2.5*1.07d-31*(300/Te)**(2)*exp(-70/Tgas)*exp(1500*(Te-Tgas)/(Te*Tgas))
E + O2(E1S) => O + O + E                       ! BOLSIG+ 	O2(E1S) -> O + O
E + O2(E1S) => O + O + E                       ! BOLSIG+ 	O2(E1S) -> O + O b
E + O2(E1S) => O^+ + O + E + E                 ! BOLSIG+ 	O2(E1S) -> O^+ + O
E + O2(E1S) => O^- + O                         ! BOLSIG+ 	O2(E1S) -> O^- + O
E + O2(E1S) => O2(E) + E                         ! BOLSIG+ 	O2(E1S) -> O2(E)
E + O2(E1S) => O2 + E                          ! BOLSIG+ 	O2(E1S) -> O2
E + O2(E1S) => O2^+ + E + E                    ! BOLSIG+ 	O2(E1S) -> O2^+
E + O2(E1S) + O2 => O2^- + O2                   ! 1.07d-31*(300/Te)**(2)*exp(-70/Tgas)*exp(1500*(Te-Tgas)/(Te*Tgas))
E + O2(E1S) + N2 => O2^- + N2                   ! 1.07d-31*(300/Te)**(2)*exp(-70/Tgas)*exp(1500*(Te-Tgas)/(Te*Tgas))
E + O2(E1S) + Ar => O2^- + Ar               ! 2.5*1.07d-31*(300/Te)**(2)*exp(-70/Tgas)*exp(1500*(Te-Tgas)/(Te*Tgas))
E + O2(E1S) + H2O => O2^- + H2O                 ! 5*1.07d-31*(300/Te)**(2)*exp(-70/Tgas)*exp(1500*(Te-Tgas)/(Te*Tgas))
E + O2(E1S) + H2 => O2^- + H2                   ! 2.5*1.07d-31*(300/Te)**(2)*exp(-70/Tgas)*exp(1500*(Te-Tgas)/(Te*Tgas))
E + O2^+ => O + O                            ! BOLSIG+ 	O2^+ -> O + O
E + E + O2^+ => O2 + E                        ! 9.14d-27*(Te/11600)**(-4.50)*exp(-0.0/(Te/11600))
E + ANY_NEUTRAL + O2^+ => O2 + ANY_NEUTRAL                        ! 2.70d-29*(Te/11600)**(-1.50)*exp(-0.0/(Te/11600))
E + O2^- => O2 + E + E                       ! BOLSIG+ 	O2^- -> O2
E + O3 => O + O2 + E                         ! BOLSIG+ 	O3 -> O + O2
E + O3 => O + O2^+ + E + E                   ! BOLSIG+ 	O3 -> O + O2^+
E + O3 => O^+ + O^- + O + E                  ! BOLSIG+ 	O3 -> O^+ + O^- + O
E + O3 => O^- + O2                           ! BOLSIG+ 	O3 -> O^- + O2
E + O3 => O + O2^-                           ! BOLSIG+ 	O3 -> O + O2^-
E + O4^+ => O2 + O2                           ! 2.25d-29*(Te/11600)**(-0.50)*exp(-0.0/(Te/11600))
E + N => E + N(E)                              ! BOLSIG+ 	N -> N(E)
E + N => E + N^+ + E                         ! BOLSIG+ 	N -> N^+
E + N(E) => E + N                              ! BOLSIG+ 	N(E) -> N
E + N(E) => E + N^+ + E                        ! BOLSIG+ 	N(E) -> N^+
E + N^+ => N                                 ! BOLSIG+ 	N^+ -> N
E + E + N^+ => N + E                          ! 9.14d-27*(Te/11600)**(-4.50)*exp(-0.0/(Te/11600))
E + ANY_NEUTRAL + N^+ => N + ANY_NEUTRAL                          ! 2.70d-29*(Te/11600)**(-1.50)*exp(-0.0/(Te/11600))
E + N2 => E + N2(R)                            ! BOLSIG+ 	N2 -> N2(R)
E + N2 => N2(V1) + E                            ! BOLSIG+ 	N2 -> N2(V1)
E + N2 => N2(V1) + E                            ! BOLSIG+ 	N2 -> N2(V2)
E + N2 => N2(V1) + E                            ! BOLSIG+ 	N2 -> N2(V3)
E + N2 => N2(V1) + E                            ! BOLSIG+ 	N2 -> N2(V4)
E + N2 => N2(V1) + E                            ! BOLSIG+ 	N2 -> N2(V5)
E + N2 => N2(V1) + E                            ! BOLSIG+ 	N2 -> N2(V6)
E + N2 => N2(V1) + E                            ! BOLSIG+ 	N2 -> N2(V7)
E + N2 => N2(V1) + E                            ! BOLSIG+ 	N2 -> N2(V8)
E + N2 => E + N2(E)                            ! BOLSIG+ 	N2 -> N2(E)
E + N2 => E + N2(AP1S)                         ! BOLSIG+ 	N2 -> N2(AP1S)
E + N2 => E + N + N                          ! BOLSIG+ 	N2 -> N + N
E + N2 => E + N^+ + N + E                    ! BOLSIG+ 	N2 -> N^+ + N
E + N2 => E + E + N2^+                       ! BOLSIG+ 	N2 -> N2^+
E + N2(V1) => N2 + E                            ! BOLSIG+ 	N2(V1) -> N2
E + N2(V1) => N2(E) + E                           ! BOLSIG+ 	N2(V1) -> N2(E)
E + N2(V1) => N2^+ + E + E                      ! BOLSIG+ 	N2(V1) -> N2^+
E + N2(E) => E + N2^+ + E                      ! BOLSIG+ 	N2(E) -> N2^+
E + N2(AP1S) => E + N2                         ! BOLSIG+ 	N2(AP1S) -> N2
E + N2(AP1S) => N2^+ + E + E                   ! BOLSIG+ 	N2(AP1S) -> N2^+
E + N2^+ => N + N                            ! BOLSIG+ 	N2^+ -> N + N
E + E + N2^+ => N2 + E                        ! 9.14d-27*(Te/11600)**(-4.50)*exp(-0.0/(Te/11600))
E + ANY_NEUTRAL + N2^+ => N2 + ANY_NEUTRAL                        ! 2.70d-29*(Te/11600)**(-1.50)*exp(-0.0/(Te/11600))
E + N3^+ => N + N2                            ! 3.22d-08*(Te/11600)**(-0.50)*exp(-0.0/(Te/11600))
E + N4^+ => N2 + N2                           ! 3.21d-07*(Te/11600)**(-0.50)*exp(-0.0/(Te/11600))
E + N4^+ => N2 + N + N                        ! 3.13d-07*(Te/11600)**(-0.41)*exp(-0.0/(Te/11600))
E + NO => E + N + O                          ! BOLSIG+ 	NO -> N + O
E + NO => N + O^-                            ! BOLSIG+ 	NO -> N + O^-
E + NO => E + E + N^+ + O                    ! BOLSIG+ 	NO -> N^+ + O
E + NO => E + E + N + O^+                    ! BOLSIG+ 	NO -> N + O^+
E + NO => E + E + NO^+                       ! BOLSIG+ 	NO -> NO^+
E + NO^+ => N + O                             ! 1.80d-09*(Te/11600)**(-1.50)*exp(-0.0/(Te/11600))
E + NO^+ => N(E) + O                            ! 7.76d-09*(Te/11600)**(-1.00)*exp(-0.0/(Te/11600))
E + E + NO^+ => NO + E                        ! 9.14d-27*(Te/11600)**(-4.50)*exp(-0.0/(Te/11600))
E + ANY_NEUTRAL + NO^+ => NO + ANY_NEUTRAL                        ! 2.70d-29*(Te/11600)**(-1.50)*exp(-0.0/(Te/11600))
E + NO2 => E + E + NO^+ + O                  ! BOLSIG+ 	NO2 -> NO^+ + O
E + NO2 => E + E + NO2^+                     ! BOLSIG+ 	NO2 -> NO2^+
E + NO2 => NO + O + E                        ! 5.60d-09*(Te/11600)**(0.00)*exp(-3.11/(Te/11600))
E + NO2 => NO + O^-                           ! 1.00d-11*(Te/11600)**(-0.00)*exp(-0.0/(Te/11600))
E + NO2 => NO2^-                              ! 3.00d-11*(Te/11600)**(-0.00)*exp(-0.0/(Te/11600))
E + NO2^+ => NO + O                           ! 3.22d-08*(Te/11600)**(-0.50)*exp(-0.0/(Te/11600))
E + E + NO2^+ => NO2 + E                      ! 9.14d-27*(Te/11600)**(-4.50)*exp(-0.0/(Te/11600))
E + ANY_NEUTRAL + NO2^+ => NO2 + ANY_NEUTRAL                      ! 2.70d-29*(Te/11600)**(-1.50)*exp(-0.0/(Te/11600))
E + NO3 + ANY_NEUTRAL => NO3^- + ANY_NEUTRAL                      ! 1.00d-30*(Te/11600)**(-0.00)*exp(-0.0/(Te/11600))
E + N2O => N2O(V1) + E                          ! BOLSIG+ 	N2O -> N2O(V1)
E + N2O => N2O(V1) + E                          ! BOLSIG+ 	N2O -> N2O(V2)
E + N2O => N2O(V1) + E                          ! BOLSIG+ 	N2O -> N2O(V3)
E + N2O => N2 + O^-                          ! BOLSIG+ 	N2O -> N2 + O^-
E + N2O => NO^+ + N + E + E                  ! BOLSIG+ 	N2O -> NO^+ + N
E + N2O => O^+ + N2 + E + E                  ! BOLSIG+ 	N2O -> O^+ + N2
E + N2O => N2^+ + O + E + E                  ! BOLSIG+ 	N2O -> N2^+ + O
E + N2O => N^+ + NO + E + E                  ! BOLSIG+ 	N2O -> N^+ + NO
E + N2O => N2 + O + E                        ! 1.40d-09*(Te/11600)**(0.00)*exp(-1.67/(Te/11600))
E + N2O => N2 + O(E) + E                       ! 1.20d-09*(Te/11600)**(0.00)*exp(-3.64/(Te/11600))
E + N2O => NO + N + E                        ! 1.00d-10*(Te/11600)**(0.00)*exp(-4.93/(Te/11600))
E + H => H(E) + E                              ! BOLSIG+ 	H -> H(E)
E + H => H(E) + E                              ! BOLSIG+ 	H -> H(E)b
E + H => H(E) + E                              ! BOLSIG+ 	H -> H(E)c
E + H => E + H^+ + E                         ! BOLSIG+ 	H -> H^+
E + H(E) => H + E                              ! BOLSIG+ 	H(E) -> H
E + H(E) => H^+ + E + E                        ! BOLSIG+ 	H(E) -> H^+
E + H^+ => H                                 ! BOLSIG+ 	H^+ -> H
E + E + H^+ => H + E                          ! 9.14d-27*(Te/11600)**(-4.50)*exp(-0.0/(Te/11600))
E + ANY_NEUTRAL + H^+ => H + ANY_NEUTRAL                          ! 2.70d-29*(Te/11600)**(-1.50)*exp(-0.0/(Te/11600))
E + H^- => E + E + H                         ! BOLSIG+ 	H^- -> H
E + H2 => H2(R) + E                            ! BOLSIG+ 	H2 -> H2(R)
E + H2 => H2(R) + E                            ! BOLSIG+ 	H2 -> H2(R)b
E + H2 => H2(V1) + E                            ! BOLSIG+ 	H2 -> H2(V1)
E + H2 => H2(V1) + E                            ! BOLSIG+ 	H2 -> H2(V2)
!E + H2 => H2(E) + E                            ! BOLSIG+ 	H2 -> H2(E)
!E + H2 => H2(E) + E                            ! BOLSIG+ 	H2 -> H2(E)b
E + H2 => E + H + H                          ! BOLSIG+ 	H2 -> H + H
E + H2 => E + E + H2^+                       ! BOLSIG+ 	H2 -> H2^+
!E + H2(E) => H2 + E                            ! BOLSIG+ 	H2(E) -> H2
!E + H2(E) => H2^+ + E + E                      ! BOLSIG+ 	H2(E) -> H2^+
E + H2^+ => H + H                            ! BOLSIG+ 	H2^+ -> H + H
E + H2^+ => E + H^+ + H                      ! BOLSIG+ 	H2^+ -> H^+ + H
E + H2^+ => H^+ + H^-                        ! BOLSIG+ 	H2^+ -> H^+ + H^-
E + E + H2^+ => H2 + E                        ! 9.14d-27*(Te/11600)**(-4.50)*exp(-0.0/(Te/11600))
E + ANY_NEUTRAL + H2^+ => H2 + ANY_NEUTRAL                        ! 2.70d-29*(Te/11600)**(-1.50)*exp(-0.0/(Te/11600))
E + H3^+ => H2 + H                           ! BOLSIG+ 	H3^+ -> H2 + H
E + H3^+ => E + H2 + H^+                     ! BOLSIG+ 	H3^+ -> H2 + H^+
E + H3^+ => H + H + H                        ! BOLSIG+ 	H3^+ -> H + H + H
E + H3^+ => E + H + H + H^+                  ! BOLSIG+ 	H3^+ -> H + H + H^+
E + OH => E + O + H                          ! 2.08d-07*(Te/11600)**(-0.76)*exp(-6.9/(Te/11600))
E + OH => E + OH(E)                            ! 1.52d-06*(Te/11600)**(0.52)*exp(-3.85/(Te/11600))
E + OH => E + E + OH^+                       ! BOLSIG+ 	OH -> OH^+
E + OH(E) => E + OH^+ + E                       ! 3.02d-11*(Te/11600)**(-2.61)*exp(-10.58/(Te/11600))
E + OH(E) => E + O + H                         ! 1.54d-07*(Te/11600)**(-0.75)*exp(-3.90/(Te/11600))
E + OH^+ => O + H                             ! 6.03d-09*(Te/11600)**(-0.50)*exp(-0.0/(Te/11600))
E + E + OH^+ => OH + E                        ! 9.14d-27*(Te/11600)**(-4.50)*exp(-0.0/(Te/11600))
E + ANY_NEUTRAL + OH^+ => OH + ANY_NEUTRAL                        ! 2.70d-29*(Te/11600)**(-1.50)*exp(-0.0/(Te/11600))
E + OH^- => OH + E + E                       ! BOLSIG+ 	OH^- -> OH
E + OH^- => O + H + E + E                     ! 9.67d-06*(Te/11600)**(-1.89)*exp(-12.1/(Te/11600))
E + H2O => E + H2O(V1)                          ! BOLSIG+ 	H2O -> H2O(V1)
E + H2O => E + H2O(V1)                          ! BOLSIG+ 	H2O -> H2O(V2)
E + H2O => E + H2O(V1)                          ! BOLSIG+ 	H2O -> H2O(V3)
E + H2O => O^- + H2                          ! BOLSIG+ 	H2O -> O^- + H2
E + H2O => OH + H^-                          ! BOLSIG+ 	H2O -> OH + H^-
E + H2O => OH^- + H                          ! BOLSIG+ 	H2O -> OH^- + H
E + H2O => E + OH + H                        ! BOLSIG+ 	H2O -> OH + H
E + H2O => E + O + H + H                     ! BOLSIG+ 	H2O -> O + H + H
E + H2O => E + E + H2O^+                     ! BOLSIG+ 	H2O -> H2O^+
E + H2O^+ => O + H2                           ! 6.27d-09*(Te/11600)**(-0.50)*exp(-0.0/(Te/11600))
E + H2O^+ => O + H + H                        ! 4.90d-08*(Te/11600)**(-0.50)*exp(-0.0/(Te/11600))
E + H2O^+ => OH + H                           ! 1.38d-08*(Te/11600)**(-0.50)*exp(-0.0/(Te/11600))
E + E + H2O^+ => H2O + E                      ! 9.14d-27*(Te/11600)**(-4.50)*exp(-0.0/(Te/11600))
E + ANY_NEUTRAL + H2O^+ => H2O + ANY_NEUTRAL                      ! 2.70d-29*(Te/11600)**(-1.50)*exp(-0.0/(Te/11600))
E + H3O^+ => H + H + OH                       ! 0.60d-07*(Te/11600)**(-0.70)*exp(-0.0/(Te/11600))
E + H3O^+ => H2O + H                          ! 0.25d-07*(Te/11600)**(-0.70)*exp(-0.0/(Te/11600))
E + H3O^+ => H2 + OH                          ! 0.14d-07*(Te/11600)**(-0.70)*exp(-0.0/(Te/11600))
E + H3O^+ => H2 + O + H                       ! 1.30d-09*(Te/11600)**(-0.70)*exp(-0.0/(Te/11600))
E + H2O2 => H2O + O^-                        ! BOLSIG+ 	H2O2 -> H2O + O^-
E + H2O2 => OH + OH^-                        ! BOLSIG+ 	H2O2 -> OH + OH^-
E + NH => N + H + E                          ! BOLSIG+ 	NH -> N + H
E + NH => N^+ + H + E + E                    ! BOLSIG+ 	NH -> N^+ + H
E + HNO3 => NO2^- + OH                        ! 5.00d-08*(Te/11600)**(-0.00)*exp(-0.0/(Te/11600))
E + ArH^+ => Ar + H                        ! BOLSIG+ 	ArH^+ -> Ar + H
Ar(4SM) + Ar(4SM) => Ar^+ + Ar + E              ! 6.40d-10*(Tgas/300.0)**(0.00)*exp(-0.0/Tgas)
Ar(4SM) + Ar(4SR) => Ar^+ + Ar + E              ! 2.10d-09*(Tgas/300.0)**(0.00)*exp(-0.0/Tgas)
Ar(4SM) + Ar(4SPM) => Ar^+ + Ar + E             ! 6.40d-10*(Tgas/300.0)**(0.00)*exp(-0.0/Tgas)
Ar(4SM) + Ar(4SPR) => Ar^+ + Ar + E             ! 2.10d-09*(Tgas/300.0)**(0.00)*exp(-0.0/Tgas)
Ar(4SR) + Ar(4SR) => Ar^+ + Ar + E              ! 2.10d-09*(Tgas/300.0)**(0.00)*exp(-0.0/Tgas)
Ar(4SR) + Ar(4SPM) => Ar^+ + Ar + E             ! 2.10d-09*(Tgas/300.0)**(0.00)*exp(-0.0/Tgas)
Ar(4SR) + Ar(4SPR) => Ar^+ + Ar + E             ! 2.10d-09*(Tgas/300.0)**(0.00)*exp(-0.0/Tgas)
Ar(4SPM) + Ar(4SPM) => Ar^+ + Ar + E            ! 6.40d-10*(Tgas/300.0)**(0.00)*exp(-0.0/Tgas)
Ar(4SPM) + Ar(4SPR) => Ar^+ + Ar + E            ! 2.10d-09*(Tgas/300.0)**(0.00)*exp(-0.0/Tgas)
Ar(4SPR) + Ar(4SPR) => Ar^+ + Ar + E            ! 2.10d-09*(Tgas/300.0)**(0.00)*exp(-0.0/Tgas)
Ar(4SM) + Ar(4P) => Ar^+ + Ar + E               ! 5.00d-10*(Tgas/300.0)**(0.00)*exp(-0.0/Tgas)
Ar(4SR) + Ar(4P) => Ar^+ + Ar + E               ! 5.00d-10*(Tgas/300.0)**(0.00)*exp(-0.0/Tgas)
Ar(4SPM) + Ar(4P) => Ar^+ + Ar + E              ! 5.00d-10*(Tgas/300.0)**(0.00)*exp(-0.0/Tgas)
Ar(4SPR) + Ar(4P) => Ar^+ + Ar + E              ! 5.00d-10*(Tgas/300.0)**(0.00)*exp(-0.0/Tgas)
Ar(4P) + Ar(4P) => Ar^+ + Ar + E                ! 5.00d-10*(Tgas/300.0)**(0.00)*exp(-0.0/Tgas)
Ar(4SM) + Ar2(E) => Ar^+ + Ar + Ar + E        ! 5.00d-10*(Tgas/300.0)**(0.00)*exp(-0.0/Tgas)
Ar(4SR) + Ar2(E) => Ar^+ + Ar + Ar + E        ! 5.00d-10*(Tgas/300.0)**(0.00)*exp(-0.0/Tgas)
Ar(4SPM) + Ar2(E) => Ar^+ + Ar + Ar + E       ! 5.00d-10*(Tgas/300.0)**(0.00)*exp(-0.0/Tgas)
Ar(4SPR) + Ar2(E) => Ar^+ + Ar + Ar + E       ! 5.00d-10*(Tgas/300.0)**(0.00)*exp(-0.0/Tgas)
Ar(4P) + Ar2(E) => Ar^+ + Ar + Ar + E         ! 5.00d-10*(Tgas/300.0)**(0.00)*exp(-0.0/Tgas)
Ar(4SM) + Ar2(E) => Ar2^+ + Ar + E              ! 5.00d-10*(Tgas/300.0)**(0.00)*exp(-0.0/Tgas)
Ar(4SR) + Ar2(E) => Ar2^+ + Ar + E              ! 5.00d-10*(Tgas/300.0)**(0.00)*exp(-0.0/Tgas)
Ar(4SPM) + Ar2(E) => Ar2^+ + Ar + E             ! 5.00d-10*(Tgas/300.0)**(0.00)*exp(-0.0/Tgas)
Ar(4SPR) + Ar2(E) => Ar2^+ + Ar + E             ! 5.00d-10*(Tgas/300.0)**(0.00)*exp(-0.0/Tgas)
Ar(4P) + Ar2(E) => Ar2^+ + Ar + E               ! 5.00d-10*(Tgas/300.0)**(0.00)*exp(-0.0/Tgas)
Ar(4SM) + Ar => Ar + Ar                  ! 2.09d-15*(Tgas/300.0)**(0.00)*exp(-0.0/Tgas)
Ar(4SR) + Ar => Ar + Ar                  ! 2.09d-15*(Tgas/300.0)**(0.00)*exp(-0.0/Tgas)
Ar(4SPM) + Ar => Ar + Ar                 ! 5.30d-15*(Tgas/300.0)**(0.00)*exp(-0.0/Tgas)
Ar(4SPR) + Ar => Ar + Ar                 ! 5.30d-15*(Tgas/300.0)**(0.00)*exp(-0.0/Tgas)
Ar(4SM) + Ar + ANY_NEUTRAL => Ar2(E) + ANY_NEUTRAL                 ! 3.30d-32*(Tgas/300.0)**(0.00)*exp(-0.0/Tgas)
Ar(4SR) + Ar + ANY_NEUTRAL => Ar2(E) + ANY_NEUTRAL                 ! 3.30d-32*(Tgas/300.0)**(0.00)*exp(-0.0/Tgas)
Ar(4SPM) + Ar + ANY_NEUTRAL => Ar2(E) + ANY_NEUTRAL                ! 3.30d-32*(Tgas/300.0)**(0.00)*exp(-0.0/Tgas)
Ar(4SPR) + Ar + ANY_NEUTRAL => Ar2(E) + ANY_NEUTRAL                ! 3.30d-32*(Tgas/300.0)**(0.00)*exp(-0.0/Tgas)
Ar(4P) + Ar + ANY_NEUTRAL => Ar2(E) + ANY_NEUTRAL                  ! 1.00d-31*(Tgas/300.0)**(0.00)*exp(-0.0/Tgas)
Ar^+ + Ar + ANY_NEUTRAL => Ar2^+ + ANY_NEUTRAL                   ! 2.50d-31*(Tgas/300.0)**(0.00)*exp(-0.0/Tgas)
Ar2(E) + Ar2(E) => Ar2^+ + Ar + Ar + E        ! 5.00d-10*(Tgas/300.0)**(0.00)*exp(-0.0/Tgas)
Ar2(E) + ANY_NEUTRAL => Ar + Ar + ANY_NEUTRAL                  ! 5.00d-15*(Tgas/300.0)**(0.00)*exp(-0.0/Tgas)
Ar2(E) + ANY_NEUTRAL => Ar(4SM) + Ar + ANY_NEUTRAL                 ! 5.00d-15*(Tgas/300.0)**(0.00)*exp(-0.0/Tgas)
Ar2(E) + ANY_NEUTRAL => Ar(4SR) + Ar + ANY_NEUTRAL                 ! 5.00d-15*(Tgas/300.0)**(0.00)*exp(-0.0/Tgas)
Ar2(E) + ANY_NEUTRAL => Ar(4SPM) + Ar + ANY_NEUTRAL                ! 5.00d-15*(Tgas/300.0)**(0.00)*exp(-0.0/Tgas)
Ar2(E) + ANY_NEUTRAL => Ar(4SPR) + Ar + ANY_NEUTRAL                ! 5.00d-15*(Tgas/300.0)**(0.00)*exp(-0.0/Tgas)
Ar(4SM) + O2 => Ar + O + O                   ! 2.10d-10*(Tgas/300.0)**(0.00)*exp(-0.0/Tgas)
Ar(4SM) + O2(E) => Ar + O + O                  ! 2.10d-10*(Tgas/300.0)**(0.00)*exp(-0.0/Tgas)
Ar(4SM) + O2(E1S) => Ar + O + O                ! 2.10d-10*(Tgas/300.0)**(0.00)*exp(-0.0/Tgas)
Ar(4SM) + O3 => Ar + O2 + O(E)                 ! 2.10d-10*(Tgas/300.0)**(0.00)*exp(-0.0/Tgas)
Ar(4SM) + N => Ar + N(E)                       ! 1.00d-12*(Tgas/300.0)**(0.00)*exp(-0.0/Tgas)
Ar(4SM) + N(E) => Ar + N^+ + E                  ! 5.00d-10*(Tgas/300.0)**(0.00)*exp(-0.0/Tgas)
Ar(4SM) + N2 => Ar + N2(E)                     ! 3.60d-11*(Tgas/300.0)**(0.00)*exp(-0.0/Tgas)
Ar(4SM) + N2 => Ar + N + N                   ! 3.60d-11*(Tgas/300.0)**(0.00)*exp(-0.0/Tgas)
Ar(4SM) + N2(E) => Ar + N2^+ + E                ! 5.00d-10*(Tgas/300.0)**(0.00)*exp(-0.0/Tgas)
Ar(4SM) + N2(E) => Ar + N + N                  ! 3.60d-11*(Tgas/300.0)**(0.00)*exp(-0.0/Tgas)
Ar(4SM) + N2(AP1S) => Ar + N2^+ + E             ! 5.00d-10*(Tgas/300.0)**(0.00)*exp(-0.0/Tgas)
Ar(4SM) + N2(AP1S) => Ar + N + N               ! 3.60d-11*(Tgas/300.0)**(0.00)*exp(-0.0/Tgas)
Ar(4SM) + NO => Ar + N + O                   ! 2.39d-10*(Tgas/300.0)**(0.00)*exp(-0.0/Tgas)
Ar(4SM) + NO2 => Ar + NO + O                 ! 6.49d-10*(Tgas/300.0)**(0.00)*exp(-0.0/Tgas)
Ar(4SM) + N2O => Ar + NO + N                 ! 4.40d-10*(Tgas/300.0)**(0.00)*exp(-0.0/Tgas)
Ar(4SM) + N2O => Ar + N2(E) + O                ! 4.40d-10*(Tgas/300.0)**(0.00)*exp(-0.0/Tgas)
Ar(4SR) + O2 => Ar + O + O                   ! 2.10d-10*(Tgas/300.0)**(0.00)*exp(-0.0/Tgas)
Ar(4SR) + O2(E) => Ar + O + O                  ! 2.10d-10*(Tgas/300.0)**(0.00)*exp(-0.0/Tgas)
Ar(4SR) + O2(E1S) => Ar + O + O                ! 2.10d-10*(Tgas/300.0)**(0.00)*exp(-0.0/Tgas)
Ar(4SR) + O3 => Ar + O2 + O(E)                 ! 2.10d-10*(Tgas/300.0)**(0.00)*exp(-0.0/Tgas)
Ar(4SR) + N => Ar + N(E)                       ! 1.00d-12*(Tgas/300.0)**(0.00)*exp(-0.0/Tgas)
Ar(4SR) + N(E) => Ar + N^+ + E                  ! 1.00d-11*(Tgas/300.0)**(0.00)*exp(-0.0/Tgas)
Ar(4SR) + N2 => Ar + N2(E)                     ! 3.60d-11*(Tgas/300.0)**(0.00)*exp(-0.0/Tgas)
Ar(4SR) + N2 => Ar + N + N                   ! 3.60d-11*(Tgas/300.0)**(0.00)*exp(-0.0/Tgas)
Ar(4SR) + N2(E) => Ar + N2^+ + E                ! 5.00d-10*(Tgas/300.0)**(0.00)*exp(-0.0/Tgas)
Ar(4SR) + N2(E) => Ar + N + N                  ! 3.60d-11*(Tgas/300.0)**(0.00)*exp(-0.0/Tgas)
Ar(4SR) + N2(AP1S) => Ar + N2^+ + E             ! 5.00d-10*(Tgas/300.0)**(0.00)*exp(-0.0/Tgas)
Ar(4SR) + N2(AP1S) => Ar + N + N               ! 3.60d-11*(Tgas/300.0)**(0.00)*exp(-0.0/Tgas)
Ar(4SR) + NO => Ar + N + O                   ! 2.39d-10*(Tgas/300.0)**(0.00)*exp(-0.0/Tgas)
Ar(4SR) + NO2 => Ar + NO + O                 ! 6.49d-10*(Tgas/300.0)**(0.00)*exp(-0.0/Tgas)
Ar(4SR) + N2O => Ar + NO + N                 ! 4.40d-10*(Tgas/300.0)**(0.00)*exp(-0.0/Tgas)
Ar(4SR) + N2O => Ar + N2(E) + O                ! 4.40d-10*(Tgas/300.0)**(0.00)*exp(-0.0/Tgas)
Ar(4SPM) + O2 => Ar + O + O                  ! 2.10d-10*(Tgas/300.0)**(0.00)*exp(-0.0/Tgas)
Ar(4SPM) + O2(E) => Ar + O + O                 ! 2.10d-10*(Tgas/300.0)**(0.00)*exp(-0.0/Tgas)
Ar(4SPM) + O2(E1S) => Ar + O + O               ! 2.10d-10*(Tgas/300.0)**(0.00)*exp(-0.0/Tgas)
Ar(4SPM) + O3 => Ar + O2 + O(E)                ! 2.10d-10*(Tgas/300.0)**(0.00)*exp(-0.0/Tgas)
Ar(4SPM) + N => Ar + N(E)                      ! 1.00d-12*(Tgas/300.0)**(0.00)*exp(-0.0/Tgas)
Ar(4SPM) + N(E) => Ar + N^+ + E                 ! 1.00d-11*(Tgas/300.0)**(0.00)*exp(-0.0/Tgas)
Ar(4SPM) + N2 => Ar + N2(E)                    ! 3.60d-11*(Tgas/300.0)**(0.00)*exp(-0.0/Tgas)
Ar(4SPM) + N2 => Ar + N + N                  ! 3.60d-11*(Tgas/300.0)**(0.00)*exp(-0.0/Tgas)
Ar(4SPM) + N2(E) => Ar + N2^+ + E               ! 5.00d-10*(Tgas/300.0)**(0.00)*exp(-0.0/Tgas)
Ar(4SPM) + N2(E) => Ar + N + N                 ! 3.60d-11*(Tgas/300.0)**(0.00)*exp(-0.0/Tgas)
Ar(4SPM) + N2(AP1S) => Ar + N2^+ + E            ! 5.00d-10*(Tgas/300.0)**(0.00)*exp(-0.0/Tgas)
Ar(4SPM) + N2(AP1S) => Ar + N + N              ! 3.60d-11*(Tgas/300.0)**(0.00)*exp(-0.0/Tgas)
Ar(4SPM) + NO => Ar + N + O                  ! 2.39d-10*(Tgas/300.0)**(0.00)*exp(-0.0/Tgas)
Ar(4SPM) + NO2 => Ar + NO + O                ! 6.49d-10*(Tgas/300.0)**(0.00)*exp(-0.0/Tgas)
Ar(4SPM) + N2O => Ar + NO + N                ! 4.40d-10*(Tgas/300.0)**(0.00)*exp(-0.0/Tgas)
Ar(4SPM) + N2O => Ar + N2(E) + O               ! 4.40d-10*(Tgas/300.0)**(0.00)*exp(-0.0/Tgas)
Ar(4SPR) + O2 => Ar + O + O                  ! 2.10d-10*(Tgas/300.0)**(0.00)*exp(-0.0/Tgas)
Ar(4SPR) + O2(E) => Ar + O + O                 ! 2.10d-10*(Tgas/300.0)**(0.00)*exp(-0.0/Tgas)
Ar(4SPR) + O2(E1S) => Ar + O + O               ! 2.10d-10*(Tgas/300.0)**(0.00)*exp(-0.0/Tgas)
Ar(4SPR) + O3 => Ar + O2 + O(E)                ! 2.10d-10*(Tgas/300.0)**(0.00)*exp(-0.0/Tgas)
Ar(4SPR) + N => Ar + N(E)                      ! 1.00d-12*(Tgas/300.0)**(0.00)*exp(-0.0/Tgas)
Ar(4SPR) + N(E) => Ar + N^+ + E                 ! 1.00d-11*(Tgas/300.0)**(0.00)*exp(-0.0/Tgas)
Ar(4SPR) + N2 => Ar + N2(E)                    ! 3.60d-11*(Tgas/300.0)**(0.00)*exp(-0.0/Tgas)