# INPUT DATA FILE
# ZDPLASKIN
# LAST UPDATED: 24.06.2024
#

ELEMENTS
E C H
END

SPECIES
####
#### C0
####
E
H2 H
####
#### C1
####
CH4 CH3 CH2 CH C(S)
####
#### C2
####
C2H6 C2H4 C2H2 
C2H5 C2H3 C2H
####
#### C3
####
CH3CH2CH3 
CH3CH2CH2 CH3CHCH3
CH2CHCH3 
CH2CHCH2 CHCHCH3 CH2CCH3
CH3CCH H2CCCH2
HCCCH2
HCCCH
####
#### C4
####
CH3CH2CH2CH3 CH2CH2CH2CH3 CH3CHCH2CH3
CH2CHCH2CH3 CH3CHCHCH3
C4H7 CH2CHCH2CH2 CH2CHCHCH3
C4H6 C4H5 HCCCHCH2 C4H3 HCCCCH
####
#### CARBON SPECIES
####
C3 C2 C 
####
#### CATIONS
####
C^+ C2^+ C2H6^+ C2H5^+ C2H4^+ C2H3^+ C2H2^+ C2H^+
CH5^+ CH4^+ CH3^+ CH2^+ CH^+
H3^+ H2^+ H^+
####
#### ANIONS
####
H^-
####
#### VIBRATIONAL LEVELS
####
CH4(V1) CH4(V2) CH4(V3) CH4(V4)
H2(V1) H2(V2) H2(V3) H2(V4) H2(V5) H2(V6) H2(V7) H2(V8) H2(V9) H2(V10) H2(V11) H2(V12) H2(V13) H2(V14)
###
### ELECTRONICALLY EXCITED LEVELS
###
H(E2)
END

BOLSIG
SET DBFILE bolsigdb.dat
C C2 C3 C(S)
CH4 CH4(V1) CH4(V2) CH4(V3) CH4(V4)
CH3 CH2 CH C2H C2H2 C2H3 C2H4 C2H5 C2H6
CH4^+ CH3^+ CH2^+ CH^+
C2H6^+ C2H5^+ C2H4^+ C2H3^+ C2H2^+ C2H^+
H H2 H2(V1) H2(V2) H2(V3) H2(V4) H2(V5) H2(V6) H2(V7) H2(V8) H2(V9) H2(V10) H2(V11) H2(V12) H2(V13) H2(V14)
H(E2)
H2^+ H3^+
H^-
END

REACTIONS
$ DOUBLE PRECISION, PARAMETER :: R_GAS  = 8.3144626181532
# R_GAS =  J.K−1.MOL−1

$ double precision :: AN_CH4
$ common /ANalternatives/ AN_CH4

#-----------------------------------------------------------------------------------------------------
# PRESSURE DEPENDENT REACTIONS AND RATE CONSTANTS
#-----------------------------------------------------------------------------------------------------

# REACTION 1
# THE PRE-EXPONENTIAL FACTOR HAS BEEN SCALED BY 1.5625 IN ORDER TO SET METHANE AS THE BATH GAS
# CH3 + H => CH4

# THIS IS UNDER ARGON OR HELIUM
$ DOUBLE PRECISION :: K01, KI1, FC1
$ K01 = (1.0/0.64)*(1.80D-24)*TGAS**(-1.80)
$ KI1 = (3.50D-10)
$ FC1 = (0.630)*EXP(-TGAS/3315)+0.370*EXP(-TGAS/61)

$ DOUBLE PRECISION :: K_FHeAr, F1, N1
$ N1 = 0.75D0 - 1.27D0*LOG10(FC1)
$ F1 = 1D1**(LOG10(FC1)/(1E0+(LOG10(K01*ANY_NEUTRAL/KI1)/N1)**2.0D0))
$ K_FHeAr = K01*ANY_NEUTRAL*KI1*F1/(K01*ANY_NEUTRAL+KI1)

# <Troe and Ushakov 2012>
$ DOUBLE PRECISION :: K0T_U, KIT_U, FCT_U
$ K0T_U = (1.0/0.64)*1.0D-26*EXP((-TGAS/21220.0)**2)
$ KIT_U = (3.34D-10)*(TGAS/298.15)**(-0.186)*EXP(-TGAS/25200.0)
$ FCT_U = (0.710)*EXP(-TGAS/3079)+0.290*EXP(-TGAS/54)

$ DOUBLE PRECISION :: K_FT_U, FT_U, NT_U
$ NT_U = 0.75D0 - 1.27D0*LOG10(FC1)
$ FT_U = 1D1**(LOG10(FC1)/(1E0+(LOG10(K01*ANY_NEUTRAL/KI1)/N1)**2.0D0))
$ K_FT_U = K01*ANY_NEUTRAL*KI1*F1/(K01*ANY_NEUTRAL+KI1)

# REF: Troe, J., & Ushakov, V. G. (2012). The dissociation/recombination reaction CH4 (+ M)⇔ CH3+ H (+ M): A case study for unimolecular rate theory. The Journal of chemical physics, 136(21).

#CH3 + H  => CH4  + 52746.737_K            ! K_FHeAr
CH3 + H  => CH4  + 52747.36544_K           ! K_FT_U
CH3 + H(E2)  => CH4  + 144896.78837_K      ! K_FT_U

# REACTION 2
# CH3 + CH3 => C2H6

$ DOUBLE PRECISION :: K02, KI2, FC2
$ K02 = (3.50D-7)*TGAS**(-7.00)*EXP(-1390/TGAS)
$ KI2 = (6.00D-11)
$ FC2 = (0.381)*EXP(-TGAS/73.0)+0.619*EXP(-TGAS/1180)

$ DOUBLE PRECISION :: K_F2, F2, N2
$ N2 = 0.75D0 - 1.27D0*LOG10(FC2)
$ F2 = 1D1**(LOG10(FC2)/(1E0+(LOG10(K02*ANY_NEUTRAL/KI2)/N2)**2.0D0))
$ K_F2 = K02*ANY_NEUTRAL*KI2*F2/(K02*ANY_NEUTRAL+KI2)

# REF: Blitz, M. A., Green, N. J., Shannon, R. J., Pilling, M. J., Seakins, P. W., Western, C. M., & Robertson, S. H. (2015). 
#      Reanalysis of rate data for the reaction CH3+ CH3→ C2H6 using revised cross sections and a linearized second-order master equation. The Journal of Physical Chemistry A, 119(28), 7668-7682.

CH3 + CH3 => C2H6 + 45124.39932_K            ! K_F2

# REACTION 4
# THE PRE-EXPONENTIAL FACTOR HAS BEEN SCALED BY 1.5625 IN ORDER TO SET METHANE AS THE BATH GAS              
# CH2 + H => CH3

$ DOUBLE PRECISION :: K04, KI4, FC4
$ K04 = (1.0/0.64)*(9.00D-32)*EXP(-550.0/TGAS)
$ KI4 = (8.55D-12)*TGAS**(0.15)
$ FC4 = (1-0.562)*EXP(-TGAS/91.0)+0.562*EXP(-TGAS/5836)+EXP(-8552/TGAS)

$ DOUBLE PRECISION :: K_F4, F4, N4
$ N4 = 0.75D0 - 1.27D0*LOG10(FC4)
$ F4 = 1D1**(LOG10(FC4)/(1D0+(LOG10(K04*ANY_NEUTRAL/KI4)/N4)**2.0D0))
$ K_F4 = K04*ANY_NEUTRAL*KI4*F4/(K04*ANY_NEUTRAL+KI4)

# REF: Blitz, M. A., Green, N. J., Shannon, R. J., Pilling, M. J., Seakins, P. W., Western, C. M., & Robertson, S. H. (2015). 
#      Reanalysis of rate data for the reaction CH3+ CH3→ C2H6 using revised cross sections and a linearized second-order master equation. The Journal of Physical Chemistry A, 119(28), 7668-7682.

CH2 + H => CH3 + 55169.6838_K                ! K_F4
CH2 + H(E2) => CH3 + 147319.07145_K          ! K_F4

# REACTION 5
# THE PRE-EXPONENTIAL FACTOR HAS BEEN SCALED BY 1.5625 IN ORDER TO SET METHANE AS THE BATH GAS
# CH + H2 => CH3

$ DOUBLE PRECISION :: K05, KI5, FC5
$ K05 = (1.0/0.64)*(4.70D-26)*TGAS**(-1.60)
$ KI5 = (8.50D-11)*TGAS**(0.15)
$ FC5 = (1-0.578)+(0.25*EXP(-TGAS/300.0))

$ DOUBLE PRECISION :: K_F5, F5, N5
$ N5 = 0.75D0 - 1.27D0*LOG10(FC5)
$ F5 = 1D1**(LOG10(FC5)/(1D0+(LOG10(K05*ANY_NEUTRAL/KI5)/N5)**2.0D0))
$ K_F5 = K05*ANY_NEUTRAL*KI5*F5/(K05*ANY_NEUTRAL+KI5)

# REF: Blitz, M. A., Green, N. J., Shannon, R. J., Pilling, M. J., Seakins, P. W., Western, C. M., & Robertson, S. H. (2015). 
#      Reanalysis of rate data for the reaction CH3+ CH3→ C2H6 using revised cross sections and a linearized second-order master equation. The Journal of Physical Chemistry A, 119(28), 7668-7682.

CH + @A => CH3 + @H_K                     ! K_F5
    @A = H2 H2(V1) H2(V2) H2(V3) H2(V4) H2(V5) H2(V6) H2(V7) H2(V8) H2(V9) H2(V10) H2(V11) H2(V12) H2(V13) H2(V14)
    @H = 53812.8 59800.76767 65417.3885 70755.49921 75629.42638 80271.26178 84448.91364 88394.47373 91991.89617 95125.13506 97910.2363 100347.1999 102552.0717 104408.8059 105836.1702

# REACTION 6
# H + C2H4 => C2H5

$ DOUBLE PRECISION :: K06, KI6, FC6
$ K06 = (1.30D-29)*EXP(-380.0/TGAS)
$ KI6 = (6.60D-15)*TGAS**(1.28)*EXP(-650.0/TGAS)
$ FC6 = (0.240)*EXP(-TGAS/40.0)+0.760*EXP(-TGAS/1025)

$ DOUBLE PRECISION :: K_F6, F6, N6
$ N6 = 0.75D0 - 1.27D0*LOG10(FC6)
$ F6 = 1D1**(LOG10(FC6)/(1D0+(LOG10(K06*ANY_NEUTRAL/KI6)/N6)**2.0D0))
$ K_F6 = K06*ANY_NEUTRAL*KI6*F6/(K06*ANY_NEUTRAL+KI6)

# REF: Baulch, D. L., Bowman, C. T., Cobos, C. J., Cox, R. A., Just, T., Kerr, J. A., ... & Warnatz, J. (2005). Evaluated kinetic data for combustion modeling: supplement II. Journal of physical and chemical reference data, 34(3), 757-1397.

H + C2H4 => C2H5 + 18217.90278_K             ! K_F6
H(E2) + C2H4 => C2H5 + 110367.82862_K        ! K_F6

# REACTION 7
# C2H4 => C2H2 + H2

$ DOUBLE PRECISION :: K07, KI7, FC7
$ K07 = (1.70D-6)*TGAS*EXP(-39390.0/TGAS)
$ KI7 = (8.00D12)*TGAS**(0.44)*EXP(-88770.0/TGAS)
$ FC7 = (1-0.735)*EXP(-TGAS/180.0)+0.735*EXP(-TGAS/1035)+EXP(-5417/TGAS)

$ DOUBLE PRECISION :: K_F7, F7, N7
$ N7 = 0.75E0 - 1.27E0*LOG10(FC7)
$ F7 = 1E1**(LOG10(FC7)/(1E0+(LOG10(K07*ANY_NEUTRAL/KI7)/N7)**2.0E0))
$ K_F7 = K07*ANY_NEUTRAL*KI7*F7/(K07*ANY_NEUTRAL+KI7)

# REF: Baulch, D. L., Bowman, C. T., Cobos, C. J., Cox, R. A., Just, T., Kerr, J. A., ... & Warnatz, J. (2005). Evaluated kinetic data for combustion modeling: supplement II. Journal of physical and chemical reference data, 34(3), 757-1397.

C2H4 + 20958.94724_K => C2H2 + H2              ! K_F7

# REACTION 8
# H + C2H5 => C2H6

$ DOUBLE PRECISION :: K08, KI8, FC8
$ K08 = (0.56/1.0)*(4.00D-19)*TGAS**(-3.00)*EXP(-600.0/TGAS)
$ KI8 = (2.00D-10)
$ FC8 = (1-0.842)*EXP(-TGAS/125.0)+0.842*EXP(-TGAS/2219)+EXP(-6682/TGAS)

$ DOUBLE PRECISION :: K_F8, F8, N8
$ N8 = 0.75D0 - 1.27D0*LOG10(FC8)
$ F8 = 1D1**(LOG10(FC8)/(1D0+(LOG10(K08*ANY_NEUTRAL/KI8)/N8)**2.0D0))
$ K_F8 = K08*ANY_NEUTRAL*KI8*F8/(K08*ANY_NEUTRAL+KI8)

# REF: Baulch, D. L., Bowman, C. T., Cobos, C. J., Cox, R. A., Just, T., Kerr, J. A., ... & Warnatz, J. (2005). Evaluated kinetic data for combustion modeling: supplement II. Journal of physical and chemical reference data, 34(3), 757-1397.

H + C2H5 => C2H6 + 50611.2992_K             ! K_F8
H(E2) + C2H5 => C2H6 + 142760.75324_K       ! K_F8

# REACTION 9 
# H + C2H3 => C2H4 

$ DOUBLE PRECISION :: K09, KI9, FC9
$ K09 = (3.50D-27)
$ KI9 = (1.60D-10)
$ FC9 = 0.5

$ DOUBLE PRECISION :: K_F9, F9, N9
$ N9 = 0.75E0 - 1.27E0*LOG10(FC9)
$ F9 = 1E1**(LOG10(FC9)/(1E0+(LOG10(K09*ANY_NEUTRAL/KI9)/N9)**2.0E0))
$ K_F9 = K09*ANY_NEUTRAL*KI9*F9/(K09*ANY_NEUTRAL+KI9)

# REF: Baulch, D. L., Bowman, C. T., Cobos, C. J., Cox, R. A., Just, T., Kerr, J. A., ... & Warnatz, J. (2005). Evaluated kinetic data for combustion modeling: supplement II. Journal of physical and chemical reference data, 34(3), 757-1397.

H + C2H3 => C2H4  + 55870.88122_K              ! K_F9
H(E2) + C2H3 => C2H4  + 148020.25866_K         ! K_F9

# REACTION 10 
# H + C2H2 => C2H3 

$ DOUBLE PRECISION :: K010, KI10, FC10
$ K010 = (1.60D-20)*TGAS**(-3.47)*EXP(-475.0/TGAS)
$ KI10 = (9.20D-16)*TGAS**(1.64)*EXP(-1055.0/TGAS)
$ FC10 = 7.94D-4*TGAS**(0.78)

$ DOUBLE PRECISION :: K_F10, F10, N10
$ N10 = 0.75E0 - 1.27E0*LOG10(FC10)
$ F10 = 1E1**(LOG10(FC10)/(1E0+(LOG10(K010*ANY_NEUTRAL/KI10)/N10)**2.0E0))
$ K_F10 = K010*ANY_NEUTRAL*KI10*F10/(K010*ANY_NEUTRAL+KI10)

# REF: Baulch, D. L., Bowman, C. T., Cobos, C. J., Cox, R. A., Just, T., Kerr, J. A., ... & Warnatz, J. (2005). Evaluated kinetic data for combustion modeling: supplement II. Journal of physical and chemical reference data, 34(3), 757-1397.

H + C2H2 => C2H3  + 17527.53002_K               ! K_F10
H(E2) + C2H2 => C2H3  + 109677.46591_K               ! K_F10

# REACTION 13 
# H + C2H => C2H2 

$ DOUBLE PRECISION :: K013, KI13, FC13
$ K013 = (1.26D-18)*TGAS**(-3.10)*EXP(-721.0/TGAS)
$ KI13 = (3.00D-10)
$ FC13 = (1-0.646)*EXP(-TGAS/132.0)+0.646*EXP(-TGAS/1315)+EXP(-5566/TGAS)

$ DOUBLE PRECISION :: K_F13, F13, N13
$ N13 = 0.75D0 - 1.27D0*LOG10(FC13)
$ F13 = 1D1**(LOG10(FC13)/(1D0+(LOG10(K013*ANY_NEUTRAL/KI13)/N13)**2.0D0))
$ K_F13 = K013*ANY_NEUTRAL*KI13*F13/(K013*ANY_NEUTRAL+KI13)

# REF: Baulch, D. L., Bowman, C. T., Cobos, C. J., Cox, R. A., Just, T., Kerr, J. A., ... & Warnatz, J. (2005). Evaluated kinetic data for combustion modeling: supplement II. Journal of physical and chemical reference data, 34(3), 757-1397.

H + C2H => C2H2 + 56318.3005_K                  ! K_F13
H(E2) + C2H => C2H2 + 148467.67142_K            ! K_F13

# REACTION 14 
# C2H6 => CH3 + CH3 

$ DOUBLE PRECISION :: K014, KI14, FC14
$ K014 = (2.60D25)*TGAS**(-8.37)*EXP(-47290.0/TGAS)
$ KI14 = (4.50D21)*TGAS**(-1.37)*EXP(-45900.0/TGAS)
$ FC14 = (0.38)*EXP(-TGAS/73.0)+0.62*EXP(-TGAS/1180)

$ DOUBLE PRECISION :: K_F14, F14, N14
$ N14 = 0.75D0 - 1.27D0*LOG10(FC14)
$ F14 = 1D1**(LOG10(FC14)/(1D0+(LOG10(K014*ANY_NEUTRAL/KI14)/N14)**2.0D0))
$ K_F14 = K014*ANY_NEUTRAL*KI14*F14/(K014*ANY_NEUTRAL+KI14)

# REF: Baulch, D. L., Bowman, C. T., Cobos, C. J., Cox, R. A., Just, T., Kerr, J. A., ... & Warnatz, J. (2005). Evaluated kinetic data for combustion modeling: supplement II. Journal of physical and chemical reference data, 34(3), 757-1397.

C2H6 + 45124.39932_K => CH3 + CH3                ! K_F14

# REACTION 15 
# CH4 => H + CH3 

$ DOUBLE PRECISION :: K015, KI15, FC15, KI15_1, KI15_2, KI15_3, KI15_4
$ K015 = (1.40D-6)*EXP(-45700.0/TGAS)
$ KI15 = (1.54D16)*(TGAS/298.15)**-0.56*EXP(-439000.0/(R_GAS*TGAS))
$ KI15_1 = (1.54D16)*(TGAS/298.15)**-0.56*EXP(-MAX(0D0,(439000.0-0.00*0.361*96000.0))/(R_GAS*TGAS))
$ KI15_2 = (1.54D16)*(TGAS/298.15)**-0.56*EXP(-MAX(0D0,(439000.0-0.00*0.190*96000.0))/(R_GAS*TGAS))
$ KI15_3 = (1.54D16)*(TGAS/298.15)**-0.56*EXP(-MAX(0D0,(439000.0-0.00*0.374*96000.0))/(R_GAS*TGAS))
$ KI15_4 = (1.54D16)*(TGAS/298.15)**-0.56*EXP(-MAX(0D0,(439000.0-0.00*0.162*96000.0))/(R_GAS*TGAS))
$ FC15 = (0.31)*EXP(-TGAS/91.0)+0.69*EXP(-TGAS/2207.0)

$ DOUBLE PRECISION :: K_F15, K_F15_1, K_F15_2, K_F15_3, K_F15_4, F15, N15, F15_1, F15_2, F15_3, F15_4
$ N15 = 0.75D0 - 1.27D0*LOG10(FC15)
$ F15 = 1D1**(LOG10(FC15)/(1D0+(LOG10(K015*ANY_NEUTRAL/KI15)/N15)**2.0D0))
$ F15_1 = 1D1**(LOG10(FC15)/(1D0+(LOG10(K015*ANY_NEUTRAL/KI15_1)/N15)**2.0D0))
$ F15_2 = 1D1**(LOG10(FC15)/(1D0+(LOG10(K015*ANY_NEUTRAL/KI15_2)/N15)**2.0D0))
$ F15_3 = 1D1**(LOG10(FC15)/(1D0+(LOG10(K015*ANY_NEUTRAL/KI15_3)/N15)**2.0D0))
$ F15_4 = 1D1**(LOG10(FC15)/(1D0+(LOG10(K015*ANY_NEUTRAL/KI15_4)/N15)**2.0D0))
$ K_F15 = K015*ANY_NEUTRAL*KI15*F15/(K015*ANY_NEUTRAL+KI15)
$ K_F15_1 = K015*ANY_NEUTRAL*KI15_1*F15_1/(K015*ANY_NEUTRAL+KI15_1)
$ K_F15_2 = K015*ANY_NEUTRAL*KI15_2*F15_2/(K015*ANY_NEUTRAL+KI15_3)
$ K_F15_3 = K015*ANY_NEUTRAL*KI15_3*F15_3/(K015*ANY_NEUTRAL+KI15_3)
$ K_F15_4 = K015*ANY_NEUTRAL*KI15_4*F15_4/(K015*ANY_NEUTRAL+KI15_4)

# REF: Troe, J., & Ushakov, V. G. (2012). The dissociation/recombination reaction CH4 (+ M) ⇔ CH3+ H (+ M): A case study for unimolecular rate theory. The Journal of chemical physics, 136(21).

@A + @H_K => CH3 + H                      !  @C
    @A = CH4 CH4(V1) CH4(V2) CH4(V3) CH4(V4)
    @H = 52746.98 48544.91 50540.91 48405.66 50865.83
    @C = K_F15 K_F15_1 K_F15_2 K_F15_3 K_F15_4

# REACTION 16 
# C2H5 => C2H4 + H 

$ DOUBLE PRECISION :: K016, KI16, FC16
$ K016 = (1.70D-6)*EXP(-16800.0/TGAS)
$ KI16 = (8.20D13)*EXP(-20070.0/TGAS)
$ FC16 = (0.25)*EXP(-TGAS/97.0)+0.75*EXP(-TGAS/1379)

$ DOUBLE PRECISION :: K_F16, F16, N16
$ N16 = 0.75D0 - 1.27D0*LOG10(FC16)
$ F16 = 1D1**(LOG10(FC16)/(1D0+(LOG10(K016*ANY_NEUTRAL/KI16)/N16)**2.0D0))
$ K_F16 = K016*ANY_NEUTRAL*KI16*F16/(K016*ANY_NEUTRAL+KI16)

# REF: Baulch, D. L., Bowman, C. T., Cobos, C. J., Cox, R. A., Just, T., Kerr, J. A., ... & Warnatz, J. (2005). Evaluated kinetic data for combustion modeling: supplement II. Journal of physical and chemical reference data, 34(3), 757-1397.

C2H5 + 18217.90278_K => C2H4 + H                  ! K_F16

# REACTION 17 
# C2H3 => C2H2 + H 

$ DOUBLE PRECISION :: K017, KI17, FC17
$ K017 = (4.30D3)*TGAS**(-3.40)*EXP(-18020.0/TGAS)
$ KI17 = (3.90D8)*TGAS**(1.62)*EXP(-18650.0/TGAS)
$ FC17 = (7.37D-4)*TGAS**(0.80)

$ DOUBLE PRECISION :: K_F17, F17, N17
$ N17 = 0.75D0 - 1.27D0*LOG10(FC17)
$ F17 = 1D1**(LOG10(FC17)/(1D0+(LOG10(K017*ANY_NEUTRAL/KI17)/N17)**2.0D0))
$ K_F17 = K017*ANY_NEUTRAL*KI17*F17/(K017*ANY_NEUTRAL+KI17)

# REF: Baulch, D. L., Bowman, C. T., Cobos, C. J., Cox, R. A., Just, T., Kerr, J. A., ... & Warnatz, J. (2005). Evaluated kinetic data for combustion modeling: supplement II. Journal of physical and chemical reference data, 34(3), 757-1397.

C2H3 + 17527.53002_K => C2H2 + H                  ! K_F17

# REACTION 20
# THE PRE-EXPONENTIAL FACTOR HAS BEEN SCALED BY 1.5625 IN ORDER TO SET METHANE AS THE BATH GAS
# H + H => H2                

$ DOUBLE PRECISION :: K020, KI20, FC20
$ K020 = (1.0/0.64)*(2.70D-31)*TGAS**(-0.60)
$ KI20 = (1.00D-11)
$ FC20 = (0.0506)*TGAS**(0.40)

$ DOUBLE PRECISION :: K_F20, F20, N20
$ N20 = 0.75D0 - 1.27D0*LOG10(FC20)
$ F20 = 1D1**(LOG10(FC20)/(1D0+(LOG10(K020*ANY_NEUTRAL/KI20)/N20)**2.0D0))
$ K_F20 = K020*ANY_NEUTRAL*KI20*F20/(K020*ANY_NEUTRAL+KI20)

# REF: Wang, H. (2015). Combustion Chemistry. Princeton-CEFRC Summer School On Combustion.

H + H => H2 + 52439.464_K                    ! K_F20
H + H(E2) => H2 + 144588.89141_K                    ! K_F20
H(E2) + H(E2) => H2 + 236739.08259_K                    ! K_F20

# REACTION 23
# THE PRE-EXPONENTIAL FACTOR HAS BEEN SCALED BY 1.5625 IN ORDER TO SET METHANE AS THE BATH GAS
# C + H2 => CH2

$ DOUBLE PRECISION :: K023, KI23, FC23
$ K023 = (1.0/0.64)*(7.00D-32)
$ KI23 = (2.06D-11)*EXP(-57/TGAS)
$ FC23 = (0.0506)*TGAS**(0.40)

$ DOUBLE PRECISION :: K_F23, F23, N23
$ N23 = 0.75D0 - 1.27D0*LOG10(FC23)
$ F23 = 1D1**(LOG10(FC23)/(1D0+(LOG10(K023*ANY_NEUTRAL/KI23)/N23)**2.0D0))
$ K_F23 = K023*ANY_NEUTRAL*KI23*F23/(K023*ANY_NEUTRAL+KI23)

# REF: Harding, L. B., Guadagnini, R., & Schatz, G. C. (1993). Theoretical studies of the reactions hydrogen atom+ methylidyne. carbon+ hydrogen and carbon+ hydrogen. 
#      methylene using an ab initio global ground-state potential surface for methylene. The Journal of Physical Chemistry, 97(21), 5472-5481.

C + @A => CH2 + @H_K                         ! K_F23
    @A = H2 H2(V1) H2(V2) H2(V3) H2(V4) H2(V5) H2(V6) H2(V7) H2(V8) H2(V9) H2(V10) H2(V11) H2(V12) H2(V13) H2(V14)
    @H = 39750.56 45734.19 51367.82 56652.66 61588.71 66174.75 70412.01 74300.47 77840.13 81029.80 83870.67 86362.75 88504.83 90298.11 91742.60

#-----------------------------------------------------------------------------------------------------
#TABLE 5: NEUTRAL-NEUTRAL REACTIONS
#-----------------------------------------------------------------------------------------------------

# REF: Tabayashi, K., & Bauer, S. H. (1979). The early stages of pyrolysis and oxidation of methane. Combustion and Flame, 34, 63-83.
@A + CH3 + @H_K => H + C2H6               ! 4.95D-13*(TGAS/298.15)*EXP(-MAX(0D0,(188000.0-0.00*@B*96000.0))/(R_GAS*TGAS))
    @A = CH4 CH4(V1) CH4(V2) CH4(V3) CH4(V4)
    @B = 0.0 0.361 0.190 0.374 0.162
    @H = 7517.07 3316.21 5312.20 3176.95 5637.13

# REF: Tabayashi, K., & Bauer, S. H. (1979). The early stages of pyrolysis and oxidation of methane. Combustion and Flame, 34, 63-83.
CH4 + CH3 + 5794.80132_K => H2 + C2H5         ! 1.66D-11*EXP((-96450.0)/(R_GAS*TGAS))
@A + CH3 => H2 + C2H5 + @H_K                ! 1.66D-11*EXP(-MAX(0D0,(96450.0-0.00*@B*96000.0))/(R_GAS*TGAS))
    @A = CH4(V1) CH4(V2) CH4(V3) CH4(V4)
    @B =  0.361 0.190 0.374 0.162
    @H = 1593.90 3589.89 1454.64 3914.82

# REF: Böhland, T., Dõbẽ, S., Temps, F., & Wagner, H. G. (1985). Kinetics of the Reactions between CH2 (X̃3B1)‐Radicals and Saturated Hydrocarbons in the Temperature Range 296 K≤ T≤ 707 K. Berichte der Bunsengesellschaft für physikalische Chemie, 89(10), 1110-1116.
CH4 + CH2 => CH3 + CH3 + 2422.31836_K          ! 7.14D-12*EXP(-41990.0/(R_GAS*TGAS))
@A + CH2 => CH3 + CH3 + @H_K                ! 7.14D-12*EXP(-MAX(0D0,(41990.0-0.00*@B*96000.0))/(R_GAS*TGAS))
    @A = CH4(V1) CH4(V2) CH4(V3) CH4(V4)
    @B =  0.361 0.190 0.374 0.162
    @H = 6623.16 4627.17 6762.42 4302.24

# REF: Canosa, A., Sims, I. R., Travers, D., Smith, I. W., & Rowe, B. R. (1997). Reactions of the methylidine radical with CH_4_, C_2_H_2_, C_2_H_4_, C_2_H_6_, and but-1-ene studied between 23 and 295K with a CRESU apparatus. Astronomy and Astrophysics, v. 323, p. 644-651, 323, 644-651.
CH4 + CH => C2H4 + H + 29922.96846_K         ! 3.96D-8*(TGAS/298.15)**(-1.04D0)*EXP(-36.1/TGAS)
@A + CH => C2H4 + H + @H_K                  ! 3.96D-8*(TGAS/298.15)**(-1.04D0)*EXP(-MAX(0D0,(36.1-0.00*@B*96.0))/(R_GAS*TGAS))
    @A= CH4(V4) CH4(V1)
    @B = 0.162 0.361
    @H= 31802.93234 34112.24545
@A + CH => C2H4 + H + @H_K                  ! 3.96D-8*(TGAS/298.15)**(-1.04D0)*EXP(-MAX(0D0,(36.1-0.00*@B*96.0))/(R_GAS*TGAS))
    @A= CH4(V2) CH4(V3)
    @B = 0.190 0.374 
    @H= 32127.86082 34263.1051

# REF: Braun, W., Bass, A. M., Davis, D. D., & Simmons, J. D. (1969). Flash photolysis of carbon suboxide: absolute rate constants for reactions of C (3P) and C (1D) with H2, N2, CO, NO, O2 and CH4. 
#      Proceedings of the Royal Society of London. A. Mathematical and Physical Sciences, 312(1510), 417-434.
@A + C + @H_K => CH + CH3                 ! 8.30D-11*EXP(-24.015/(1.987*TGAS))
    @A = CH4 CH4(V1) CH4(V2) CH4(V3) CH4(V4)
    @H = 11789.17 7588.31 9584.30 7449.05 9909.23
@A + C => C2H4 + @H_K                     ! 5.00D-15
    @A = CH4 CH4(V1) CH4(V2) CH4(V3) CH4(V4)
    @H = 70880.56 75081.42 73085.43 75220.67 72760.50

# REF: Chen, C. J., Back, M. H., & Back, R. A. (1976). The thermal decomposition of methane. II. Secondary reactions, autocatalysis and carbon formation; non-Arrhenius behaviour in the reaction of CH3 with ethane. Canadian Journal of Chemistry, 54(20), 3175-3184.
CH4 + C2H5 + 2136.06624_K => C2H6 + CH3        ! 2.51D-15*(TGAS/298)**2.84 * EXP(-52550/(R_GAS*TGAS))
CH4(V4) + C2H5 + 232.06_K => C2H6 + CH3     ! 2.51D-15*(TGAS/298)**2.84 * EXP(-MAX(0D0,(52550.0-0.00*0.162*96000.0))/(R_GAS*TGAS))
@A + C2H5 => C2H6 + CH3 + @H_K              ! 2.51D-15*(TGAS/298)**2.84 * EXP(-MAX(0D0,(52550.0-0.00*@B*96000.0))/(R_GAS*TGAS))
    @A = CH4(V1) CH4(V2) CH4(V3)
    @B = 0.361 0.190 0.374
    @H = 2088.86 92.87 2228.12
CH4 + C2H3 => C2H4 + CH3 + 3123.51578_K       ! 2.13D-14*(TGAS/298)**4.02 * EXP(-22860/(R_GAS*TGAS))
@A + C2H3 => C2H4 + CH3 + @H_K              ! 2.13D-14*(TGAS/298)**4.02 * EXP(-MAX(0D0,(22860.0-0.00*@B*96000.0))/(R_GAS*TGAS))
    @A = CH4(V1) CH4(V2) CH4(V3) CH4(V4)
    @B =  0.361 0.190 0.374 0.162
    @H = 7324.35 5328.36 7463.61 5003.43
@A + C2H => C2H2 + CH3 + @H_K              ! 3.01D-12*EXP(-2080.0/(R_GAS*TGAS))
    @A = CH4 CH4(V1) CH4(V2) CH4(V3) CH4(V4)
    @H = 13074.89 17275.75 15279.76 17415.01 14954.83

# REF: Sutherland, J. W., Su, M. C., & Michael, J. V. (2001). Rate constants for H+ CH4, CH3+ H2, and CH4 dissociation at high temperature. International Journal of Chemical Kinetics, 33(11), 669-684.
CH4 + H + 308.14_K => CH3 + H2              ! 4.63D-13*(TGAS/298)**3.16*EXP(-36630.0/(R_GAS*TGAS))                                            
CH4 + H(E2) => CH3 + H2 + 91842.29422_K         ! 4.63D-13*(TGAS/298)**3.16                                           
@A + H => CH3 + H2 + @H_K                   ! 4.63D-13*(TGAS/298)**3.16 * EXP(-MAX(0D0,(36630.0-0.00*@B*96000.0))/(R_GAS*TGAS)) 
    @A = CH4(V4) CH4(V1)
    @B = 0.162 0.361 
    @H = 1571.803337 3881.116449
@A + H => CH3 + H2 + @H_K                   ! 4.63D-13*(TGAS/298)**3.16 * EXP(-MAX(0D0,(36630.0-0.00*@B*96000.0))/(R_GAS*TGAS)) 
    @A = CH4(V2) CH4(V3)
    @B = 0.190 0.374 
    @H = 1896.731815 4031.976099

#------------------------------------------------------------------------------------------------

# REF: Baulch, D. L., Cobos, C., Cox, R. A., Esser, C., Frank, P., Just, T., ... & Warnatz, J. (1992). Evaluated kinetic data for combustion modelling.
CH3 + CH3 + 5486.89988_K => C2H5 + H         ! 1.46D-11*(TGAS/298.15)**0.10 * EXP(-44400/(R_GAS*TGAS))

# REF: Han, P., Su, K., Liu, Y., Wang, Y., Wang, X., Zeng, Q., ... & Zhang, L. (2011). Reaction rate of propene pyrolysis. Journal of Computational Chemistry, 32(13), 2745-2755.
CH3 + CH3 + 2422.31836_K => CH2 + CH4        ! 1.16D-13*(TGAS/298.15)**1.34*EXP(-67910.0/(R_GAS*TGAS))

# REF: Warnatz, J. (1984). Rate coefficients in the C/H/O system. Combustion chemistry, 197-360.
CH3 + CH3 => C2H4 + H2 + 28734.66134_K       ! 1.66D-8*EXP(-138000.0/(R_GAS*TGAS))

# REF: Pilling, M. J., & Robertson, J. A. (1975). A rate constant for CH2 (3B1)+ CH3. Chemical Physics Letters, 33(2), 336-339.
CH3 + CH2 => C2H4 + H + 31464.88114_K        ! 5.01D-11

# REF: Chen, C. J., Back, M. H., & Back, R. A. (1976). The thermal decomposition of methane. II. Secondary reactions, autocatalysis and carbon formation; non-Arrhenius behaviour in the reaction of CH3 with ethane. Canadian Journal of Chemistry, 54(20), 3175-3184.
CH3 + C2H6 => C2H5 + CH4 + 2136.06624_K       ! 1.74D-16*(TGAS/298)**6.00 * EXP(-25280/(R_GAS*TGAS))
CH3 + C2H5  => C2H4 + CH4 + 34529.46266_K    ! 1.88D-12*(TGAS/298.0)**(-0.5)
CH3 + C2H5 + 4558.3846_K => C2H6 + CH2     ! 3.0D-44*(TGAS)**(9.0956)
CH3 + C2H4 + 3123.51578_K => C2H3 + CH4      ! 6.91D-12*EXP(-46560.0/(R_GAS*TGAS))
CH3 + C2H2 + 3570.93506_K => CH4 + C2H       ! 3.01D-13* EXP(-72340/(R_GAS*TGAS))

# REF: Fahr, A., Laufer, A. H., & Tardy, D. C. (1999). Pressure effect on CH3 and C2H3 cross-radical reactions. The Journal of Physical Chemistry A, 103(42), 8433-8439.
CH3 + C2H3 => C2H2 + CH4 + 35219.83542_K     ! 1.5D-11*EXP(3200.0/(R_GAS*TGAS))

# REF: Sutherland, J. W., Su, M. C., & Michael, J. V. (2001). Rate constants for H+ CH4, CH3+ H2, and CH4 dissociation at high temperature. International Journal of Chemical Kinetics, 33(11), 669-684.
CH3 + @A => CH4 + H + @H_K                 ! 2.52D-14*(TGAS/298)**3.12*EXP(-MAX(0D0,(36420.0-0.04*@B*96000.0))/(R_GAS*TGAS))
 @A = H2 H2(V1) H2(V2) H2(V3) H2(V4) H2(V5) H2(V6) H2(V7) H2(V8) H2(V9) H2(V10) H2(V11) H2(V12) H2(V13) H2(V14)
 @B = 0.0 0.516 1.001 1.457 1.882 2.277 2.642 2.977 3.282 3.557 3.802 4.017 4.201 4.356 4.480
 @H = 307.90 6291.53 11925.17 17210.01 22146.05 26732.10 30969.35 34857.81 38397.47 41587.14 44428.01 46920.09 49062.17 50855.46 52299.5
CH3 + H + 2730.2198_K => CH2 + H2            ! 1.00D-10* EXP(-63190/(R_GAS*TGAS))
CH3 + H(E2) => CH2 + H2 + 89420.01114_K         ! 1.00D-10

# REF: Baulch, D. L., Bowman, C. T., Cobos, C. J., Cox, R. A., Just, T., Kerr, J. A., ... & Warnatz, J. (2005). Evaluated kinetic data for combustion modeling: supplement II. Journal of physical and chemical reference data, 34(3), 757-1397.
CH3 + 53935.67256_K => H2 + CH               ! 8.30D-9*EXP(-356000.0/(R_GAS*TGAS))
CH3 + 55169.6838_K => CH2 + H                ! 1.69D-8*EXP(-379000.0/(R_GAS*TGAS))

#------------------------------------------------------------------------------------------------

# REF: Böhland, T., Dõbẽ, S., Temps, F., & Wagner, H. G. (1985). Kinetics of the Reactions between CH2 (X̃3B1)‐Radicals and Saturated Hydrocarbons in the Temperature Range 296 K≤ T≤ 707 K. Berichte der Bunsengesellschaft für physikalische Chemie, 89(10), 1110-1116.
CH2 + CH2  => C2H2 + H + H + 13236.1537_K       !   3.32D-10*EXP(-45980.0/(R_GAS*TGAS))
CH2 + CH2 => C2H2 + H2 + 65675.6177_K           !   2.62D-9*EXP(-49970.0/(R_GAS*TGAS))
CH2 + CH3 => C2H5 + 49682.78392_K               !   7.00D-23*TGAS**(3.6337)
CH2 + C2H6 => C2H5 + CH3  + 4558.3846_K         !   9.0D-33*(TGAS)**(6.4162)
CH2 + C2H5 => C2H4 + CH3 + 36951.78102_K        !   8.01D-11
CH2 + C2H3 => C2H2 + CH3 + 37642.15378_K        !   8.01D-11
CH2 + C2H  => C2H2 + CH  +  5112.84774_K        !   3.01D-11
CH2 + @A => CH3 + H + @H_K                      !   3.59D-13*(TGAS/298)**2.30 * EXP(-30760.0/(R_GAS*TGAS))
 @A = H2 H2(V1) H2(V2) H2(V3) H2(V4) H2(V5) H2(V6) H2(V7) H2(V8) H2(V9) H2(V10) H2(V11) H2(V12) H2(V13) H2(V14)
 @H = 2730.22 8713.85 14347.49 19632.32 24568.37 29154.42 33391.67 37280.13 40819.79 44009.46 46850.33 49342.41 51484.49 53277.77 54722.26
CH2 + 39750.557_K => C + H2                     !   5.00D-10*EXP(-32600.0/TGAS)
CH2 + 51205.45276_K => CH + H                   !   1.56D-8*EXP(-44880.0/TGAS)

# REF: Han, P., Su, K., Liu, Y., Wang, Y., Wang, X., Zeng, Q., ... & Zhang, L. (2011). Reaction rate of propene pyrolysis. Journal of Computational Chemistry, 32(13), 2745-2755.
CH2 + H => CH + H2 + 1234.01124_K               !   1.00D-11* EXP(7480/(R_GAS*TGAS))
CH2 + H(E2) => CH + H2 + 93384.18444_K          !   1.00D-11

#------------------------------------------------------------------------------------------------

# REF: Czyżewski, A., Ernst, K., Franssen, G., Karasinski, G., Kmieciak, M., Lange, H., ... & Stacewicz, T. (2002). Investigation of kinetics of CH-radicals decay by cavity ring-down spectroscopy. Chemical physics letters, 357(5-6), 477-482.
CH + H2 + 1234.01124_K => CH2 + H               ! 1.48D-11*(TGAS/298.0)**(1.79)*EXP(-6980.0/(R_GAS*TGAS))
CH + @A => CH2 + H + @H_K                       ! 1.48D-11*(TGAS/298.0)**(1.79)*EXP(-MAX(0D0,(6980.0-0.80*@B*96.0))/(R_GAS*TGAS))
    @A = H2(V1) H2(V2) H2(V3) H2(V4) H2(V5) H2(V6) H2(V7) H2(V8) H2(V9) H2(V10) H2(V11) H2(V12) H2(V13) H2(V14)
    @B = 0.516 1.001 1.457 1.882 2.277 2.642 2.977 3.282 3.557 3.802 4.017 4.201 4.356 4.480
    @H = 4749.62026 10383.25442 15668.09398 20604.13894 25190.18656 29427.43958 33315.898 36855.56182 40045.2283 42886.10018 45378.17746 47520.2574 49313.54274 50758.03348
CH + CH3 => C2H3 + H + 26799.45268_K            ! (3E13/(6.0223E23))
CH + CH2 => C2H2 + H + 64441.60646_K            ! (4E13/(6.0223E23))
CH + CH => C2H2 + 115647.05922_K                !  1.99E-10
CH + 40984.56824_K => C + H                     ! 3.16D-10*EXP(-280000.0/(R_GAS*TGAS))

# REF: Warnatz, J. (1984). Rate coefficients in the C/H/O system. Combustion chemistry, 197-360.
CH + H => C + H2 + 11454.89576_K                ! 6.50D-10*(TGAS**(0.01))*EXP(-22330.0/(R_GAS*TGAS))
CH + H(E2) => C + H2 + 103604.92010_K           ! 6.50D-10*(TGAS**(0.01))

# REF: Canosa, A., Sims, I. R., Travers, D., Smith, I. W., & Rowe, B. R. (1997). Reactions of the methylidine radical with CH_4_, C_2_H_2_, C_2_H_4_, C_2_H_6_, and but-1-ene studied between 23 and 295K with a CRESU apparatus. Astronomy and Astrophysics, v. 323, p. 644-651, 323, 644-651.
CH + C2H2 + 5112.84774_K => C2H + CH2           ! 3.80D-8*(TGAS**(-0.859))*EXP(-33.5/TGAS)
CH + C2H3 => CH2 + C2H2 + 33677.92274_K         ! 8.3E-11
CH + C2H4 => C2H2 + CH3 + 32976.72532_K         ! 0.50 * 1.59D-9*(TGAS**(-0.546))*EXP(-29.6/TGAS)
CH + C2H4 => CH4 + C2H + 29405.79026_K          ! 0.50 * 1.59D-9*(TGAS**(-0.546))*EXP(-29.6/TGAS)
CH + C2H6 => C2H4 + CH3 + 37545.93458_K         ! 3.80D-8*(TGAS**(-0.859))*EXP(-53.2/TGAS)

#------------------------------------------------------------------------------------------------

# REF: Tsang, W., & Hampson, R. F. (1986). Chemical kinetic data base for combustion chemistry. Part I. Methane and related compounds. Journal of physical and chemical reference data, 15(3), 1087-1279.
C2H6 + C2H3 => C2H5 + C2H4 + 5259.58202_K       !   1.46D-13*(TGAS/298)**3.30 * EXP(-43900.0/(R_GAS*TGAS))

# REF: Baulch, D. L., Bowman, C. T., Cobos, C. J., Cox, R. A., Just, T., Kerr, J. A., ... & Warnatz, J. (2005). Evaluated kinetic data for combustion modeling: supplement II. Journal of physical and chemical reference data, 34(3), 757-1397.
C2H6 + C2H => C2H2 + C2H5 + 5707.0013_K         !   3.50D-11*EXP(20.0/(R_GAS*TGAS))

# REF: Han, P., Su, K., Liu, Y., Wang, Y., Wang, X., Zeng, Q., ... & Zhang, L. (2011). Reaction rate of propene pyrolysis. Journal of Computational Chemistry, 32(13), 2745-2755.